REMARK  Name = D:\DATA SETS\BI\DOCKING\7L0D\0EN.pdb
REMARK  13 active torsions:
REMARK  status: ('A' for Active; 'I' for Inactive)
REMARK    1  A    between atoms: _1  and  _10
REMARK    2  A    between atoms: _2  and  _4
REMARK    3  A    between atoms: _2  and  _14
REMARK    4  A    between atoms: _4  and  _7
REMARK    5  A    between atoms: _4  and  _24
REMARK    6  A    between atoms: _5  and  _29
REMARK    7  A    between atoms: _17  and  _20
REMARK    8  A    between atoms: _20  and  _21
REMARK    9  A    between atoms: _20  and  _22
REMARK   10  A    between atoms: _20  and  _23
REMARK   11  A    between atoms: _29  and  _30
REMARK   12  A    between atoms: _29  and  _31
REMARK   13  A    between atoms: _29  and  _32
REMARK                            x       y       z     vdW  Elec       q    Type
REMARK                         _______ _______ _______ _____ _____    ______ ____
ROOT
ATOM      1  C   UNL     1       6.019 -14.253  21.930  0.00  0.00    +0.287 C 
ATOM      7  O   UNL     1       4.941 -13.998  21.512  0.00  0.00    -0.266 OA
ATOM      8  N   UNL     1       6.908 -13.109  22.260  0.00  0.00    -0.249 N 
ENDROOT
BRANCH   8   9
ATOM      9  C   UNL     1       8.296 -13.240  22.851  0.00  0.00    +0.038 A 
ATOM     10  C   UNL     1       8.422 -13.187  24.388  0.00  0.00    +0.024 A 
ATOM     11  C   UNL     1       9.816 -13.305  25.056  0.00  0.00    +0.006 A 
ATOM     12  C   UNL     1      11.072 -13.467  24.179  0.00  0.00    -0.042 A 
ATOM     17  C   UNL     1      10.946 -13.509  22.637  0.00  0.00    +0.006 A 
ATOM     18  C   UNL     1       9.551 -13.392  21.965  0.00  0.00    +0.024 A 
BRANCH  12  13
ATOM     13  C   UNL     1      12.466 -13.584  24.847  0.00  0.00    -0.013 C 
ATOM     14  C   UNL     1      13.529 -13.773  23.736  0.00  0.00    +0.015 C 
ATOM     15  C   UNL     1      12.475 -14.789  25.769  0.00  0.00    +0.015 C 
ATOM     16  C   UNL     1      12.747 -12.299  25.653  0.00  0.00    +0.015 C 
ENDBRANCH  12  13
ENDBRANCH   8   9
BRANCH   1   2
ATOM      2  C   UNL     1       6.393 -15.760  22.115  0.00  0.00    +0.190 A 
ATOM      3  C   UNL     1       7.397 -16.275  22.903  0.00  0.00    +0.054 A 
ATOM      4  C   UNL     1       7.356 -17.633  22.805  0.00  0.00    +0.042 A 
ATOM      5  C   UNL     1       6.324 -17.970  21.969  0.00  0.00    +0.196 A 
ATOM      6  O   UNL     1       5.728 -16.809  21.551  0.00  0.00    -0.458 OA
ENDBRANCH   1   2
BRANCH   8  19
ATOM     19  C   UNL     1       6.333 -11.783  22.074  0.00  0.00    +0.199 C 
BRANCH  19  20
ATOM     20  C   UNL     1       5.940 -11.489  20.620  0.00  0.00    +0.000 A 
ATOM     21  C   UNL     1       6.779 -12.075  19.483  0.00  0.00    +0.116 A 
ATOM     22  N   UNL     1       6.404 -11.769  18.073  0.00  0.00    -0.263 NA
ATOM     23  C   UNL     1       5.228 -10.894  17.777  0.00  0.00    +0.111 A 
ATOM     24  C   UNL     1       4.399 -10.299  18.917  0.00  0.00    +0.020 A 
ATOM     25  C   UNL     1       4.769 -10.600  20.342  0.00  0.00    +0.009 A 
ENDBRANCH  19  20
BRANCH  19  26
ATOM     26  C   UNL     1       7.317 -10.661  22.402  0.00  0.00    +0.239 C 
ATOM     27  O   UNL     1       8.322 -10.611  21.779  0.00  0.00    -0.273 OA
ATOM     28  N   UNL     1       7.018  -9.625  23.429  0.00  0.00    -0.309 N 
ATOM     29  H   UNL     1       6.272  -9.650  23.857  0.00  0.00    +0.149 HD
BRANCH  28  30
ATOM     30  C   UNL     1       8.013  -8.531  23.722  0.00  0.00    +0.026 C 
ATOM     31  C   UNL     1       7.696  -7.887  25.086  0.00  0.00    +0.031 C 
ATOM     32  C   UNL     1       7.941  -7.451  22.632  0.00  0.00    +0.031 C 
ATOM     33  C   UNL     1       9.443  -9.116  23.780  0.00  0.00    +0.031 C 
ENDBRANCH  28  30
ENDBRANCH  19  26
ENDBRANCH   8  19
TORSDOF 7
