MODEL 1
REMARK VINA RESULT:      -5.8      0.000      0.000
REMARK  Name = D:\DATA SETS\BI\DOCKING\7L0D\0EN.pdb
REMARK  13 active torsions:
REMARK  status: ('A' for Active; 'I' for Inactive)
REMARK    1  A    between atoms: _1  and  _10
REMARK    2  A    between atoms: _2  and  _4
REMARK    3  A    between atoms: _2  and  _14
REMARK    4  A    between atoms: _4  and  _7
REMARK    5  A    between atoms: _4  and  _24
REMARK    6  A    between atoms: _5  and  _29
REMARK    7  A    between atoms: _17  and  _20
REMARK    8  A    between atoms: _20  and  _21
REMARK    9  A    between atoms: _20  and  _22
REMARK   10  A    between atoms: _20  and  _23
REMARK   11  A    between atoms: _29  and  _30
REMARK   12  A    between atoms: _29  and  _31
REMARK   13  A    between atoms: _29  and  _32
REMARK                            x       y       z     vdW  Elec       q    Type
REMARK                         _______ _______ _______ _____ _____    ______ ____
ROOT
ATOM      1  C   UNL     1       8.598   2.858   4.023  0.00  0.00    +0.287 C 
ATOM      7  O   UNL     1       8.831   1.991   4.795  0.00  0.00    -0.266 OA
ATOM      8  N   UNL     1       9.393   4.108   4.145  0.00  0.00    -0.249 N 
ENDROOT
BRANCH   8   9
ATOM      9  C   UNL     1       9.271   5.299   3.219  0.00  0.00    +0.038 A 
ATOM     10  C   UNL     1       8.409   6.486   3.698  0.00  0.00    +0.024 A 
ATOM     11  C   UNL     1       8.235   7.733   2.792  0.00  0.00    +0.006 A 
ATOM     12  C   UNL     1       8.920   7.776   1.413  0.00  0.00    -0.042 A 
ATOM     17  C   UNL     1       9.775   6.581   0.929  0.00  0.00    +0.006 A 
ATOM     18  C   UNL     1       9.952   5.332   1.834  0.00  0.00    +0.024 A 
BRANCH  12  13
ATOM     13  C   UNL     1       8.745   9.023   0.508  0.00  0.00    -0.013 C 
ATOM     14  C   UNL     1      10.110   9.348  -0.150  0.00  0.00    +0.015 C 
ATOM     15  C   UNL     1       8.299  10.196   1.359  0.00  0.00    +0.015 C 
ATOM     16  C   UNL     1       7.684   8.717  -0.570  0.00  0.00    +0.015 C 
ENDBRANCH  12  13
ENDBRANCH   8   9
BRANCH   1   2
ATOM      2  C   UNL     1       7.499   2.598   2.942  0.00  0.00    +0.190 A 
ATOM      3  C   UNL     1       6.331   3.304   2.760  0.00  0.00    +0.054 A 
ATOM      4  C   UNL     1       5.680   2.772   1.688  0.00  0.00    +0.042 A 
ATOM      5  C   UNL     1       6.440   1.745   1.192  0.00  0.00    +0.196 A 
ATOM      6  O   UNL     1       7.566   1.647   1.967  0.00  0.00    -0.458 OA
ENDBRANCH   1   2
BRANCH   8  19
ATOM     19  C   UNL     1      10.415   4.112   5.184  0.00  0.00    +0.199 C 
BRANCH  19  20
ATOM     20  C   UNL     1       9.843   4.266   6.599  0.00  0.00    +0.000 A 
ATOM     21  C   UNL     1       8.455   4.882   6.784  0.00  0.00    +0.116 A 
ATOM     22  N   UNL     1       7.913   5.048   8.163  0.00  0.00    -0.263 NA
ATOM     23  C   UNL     1       8.721   4.626   9.348  0.00  0.00    +0.111 A 
ATOM     24  C   UNL     1      10.115   4.023   9.160  0.00  0.00    +0.020 A 
ATOM     25  C   UNL     1      10.671   3.852   7.775  0.00  0.00    +0.009 A 
ENDBRANCH  19  20
BRANCH  19  26
ATOM     26  C   UNL     1      11.374   5.296   5.065  0.00  0.00    +0.239 C 
ATOM     27  O   UNL     1      12.389   5.125   4.481  0.00  0.00    -0.273 OA
ATOM     28  N   UNL     1      11.039   6.640   5.611  0.00  0.00    -0.309 N 
ATOM     29  H   UNL     1      10.286   6.764   6.009  0.00  0.00    +0.149 HD
BRANCH  28  30
ATOM     30  C   UNL     1      12.010   7.784   5.471  0.00  0.00    +0.026 C 
ATOM     31  C   UNL     1      11.431   9.046   6.142  0.00  0.00    +0.031 C 
ATOM     32  C   UNL     1      12.260   8.080   3.984  0.00  0.00    +0.031 C 
ATOM     33  C   UNL     1      13.347   7.434   6.163  0.00  0.00    +0.031 C 
ENDBRANCH  28  30
ENDBRANCH  19  26
ENDBRANCH   8  19
TORSDOF 7
ENDMDL
MODEL 2
REMARK VINA RESULT:      -5.8      3.274      5.815
REMARK  Name = D:\DATA SETS\BI\DOCKING\7L0D\0EN.pdb
REMARK  13 active torsions:
REMARK  status: ('A' for Active; 'I' for Inactive)
REMARK    1  A    between atoms: _1  and  _10
REMARK    2  A    between atoms: _2  and  _4
REMARK    3  A    between atoms: _2  and  _14
REMARK    4  A    between atoms: _4  and  _7
REMARK    5  A    between atoms: _4  and  _24
REMARK    6  A    between atoms: _5  and  _29
REMARK    7  A    between atoms: _17  and  _20
REMARK    8  A    between atoms: _20  and  _21
REMARK    9  A    between atoms: _20  and  _22
REMARK   10  A    between atoms: _20  and  _23
REMARK   11  A    between atoms: _29  and  _30
REMARK   12  A    between atoms: _29  and  _31
REMARK   13  A    between atoms: _29  and  _32
REMARK                            x       y       z     vdW  Elec       q    Type
REMARK                         _______ _______ _______ _____ _____    ______ ____
ROOT
ATOM      1  C   UNL     1       9.325   8.223   0.225  0.00  0.00    +0.287 C 
ATOM      7  O   UNL     1       9.329   7.110  -0.180  0.00  0.00    -0.266 OA
ATOM      8  N   UNL     1       9.969   8.469   1.542  0.00  0.00    -0.249 N 
ENDROOT
BRANCH   8   9
ATOM      9  C   UNL     1      10.105   9.830   2.192  0.00  0.00    +0.038 A 
ATOM     10  C   UNL     1      11.377  10.645   1.875  0.00  0.00    +0.024 A 
ATOM     11  C   UNL     1      11.582  12.041   2.517  0.00  0.00    +0.006 A 
ATOM     12  C   UNL     1      10.517  12.605   3.476  0.00  0.00    -0.042 A 
ATOM     17  C   UNL     1       9.247  11.783   3.802  0.00  0.00    +0.006 A 
ATOM     18  C   UNL     1       9.038  10.384   3.160  0.00  0.00    +0.024 A 
BRANCH  12  13
ATOM     13  C   UNL     1      10.723  14.001   4.118  0.00  0.00    -0.013 C 
ATOM     14  C   UNL     1       9.994  14.026   5.485  0.00  0.00    +0.015 C 
ATOM     15  C   UNL     1      10.130  15.059   3.207  0.00  0.00    +0.015 C 
ATOM     16  C   UNL     1      12.234  14.251   4.305  0.00  0.00    +0.015 C 
ENDBRANCH  12  13
ENDBRANCH   8   9
BRANCH   1   2
ATOM      2  C   UNL     1       8.668   9.324  -0.670  0.00  0.00    +0.190 A 
ATOM      3  C   UNL     1       7.330   9.470  -0.957  0.00  0.00    +0.054 A 
ATOM      4  C   UNL     1       7.184  10.575  -1.740  0.00  0.00    +0.042 A 
ATOM      5  C   UNL     1       8.423  11.126  -1.935  0.00  0.00    +0.196 A 
ATOM      6  O   UNL     1       9.336  10.353  -1.266  0.00  0.00    -0.458 OA
ENDBRANCH   1   2
BRANCH   8  19
ATOM     19  C   UNL     1      10.581   7.309   2.177  0.00  0.00    +0.199 C 
BRANCH  19  20
ATOM     20  C   UNL     1       9.566   6.389   2.870  0.00  0.00    +0.000 A 
ATOM     21  C   UNL     1       9.945   4.935   3.154  0.00  0.00    +0.116 A 
ATOM     22  N   UNL     1       8.948   4.041   3.809  0.00  0.00    -0.263 NA
ATOM     23  C   UNL     1       7.593   4.559   4.174  0.00  0.00    +0.111 A 
ATOM     24  C   UNL     1       7.214   6.011   3.876  0.00  0.00    +0.020 A 
ATOM     25  C   UNL     1       8.211   6.920   3.215  0.00  0.00    +0.009 A 
ENDBRANCH  19  20
BRANCH  19  26
ATOM     26  C   UNL     1      11.535   7.690   3.308  0.00  0.00    +0.239 C 
ATOM     27  O   UNL     1      12.692   7.730   3.062  0.00  0.00    -0.273 OA
ATOM     28  N   UNL     1      11.042   8.052   4.666  0.00  0.00    -0.309 N 
ATOM     29  H   UNL     1      10.198   8.050   4.829  0.00  0.00    +0.149 HD
BRANCH  28  30
ATOM     30  C   UNL     1      12.015   8.426   5.756  0.00  0.00    +0.026 C 
ATOM     31  C   UNL     1      11.268   8.570   7.097  0.00  0.00    +0.031 C 
ATOM     32  C   UNL     1      12.694   9.762   5.417  0.00  0.00    +0.031 C 
ATOM     33  C   UNL     1      13.087   7.323   5.912  0.00  0.00    +0.031 C 
ENDBRANCH  28  30
ENDBRANCH  19  26
ENDBRANCH   8  19
TORSDOF 7
ENDMDL
MODEL 3
REMARK VINA RESULT:      -5.7     17.646     21.197
REMARK  Name = D:\DATA SETS\BI\DOCKING\7L0D\0EN.pdb
REMARK  13 active torsions:
REMARK  status: ('A' for Active; 'I' for Inactive)
REMARK    1  A    between atoms: _1  and  _10
REMARK    2  A    between atoms: _2  and  _4
REMARK    3  A    between atoms: _2  and  _14
REMARK    4  A    between atoms: _4  and  _7
REMARK    5  A    between atoms: _4  and  _24
REMARK    6  A    between atoms: _5  and  _29
REMARK    7  A    between atoms: _17  and  _20
REMARK    8  A    between atoms: _20  and  _21
REMARK    9  A    between atoms: _20  and  _22
REMARK   10  A    between atoms: _20  and  _23
REMARK   11  A    between atoms: _29  and  _30
REMARK   12  A    between atoms: _29  and  _31
REMARK   13  A    between atoms: _29  and  _32
REMARK                            x       y       z     vdW  Elec       q    Type
REMARK                         _______ _______ _______ _____ _____    ______ ____
ROOT
ATOM      1  C   UNL     1       6.395  17.047  -9.688  0.00  0.00    +0.287 C 
ATOM      7  O   UNL     1       5.863  17.093  -8.631  0.00  0.00    -0.266 OA
ATOM      8  N   UNL     1       6.706  18.341 -10.349  0.00  0.00    -0.249 N 
ENDROOT
BRANCH   8   9
ATOM      9  C   UNL     1       7.428  18.479 -11.673  0.00  0.00    +0.038 A 
ATOM     10  C   UNL     1       6.562  18.626 -12.942  0.00  0.00    +0.024 A 
ATOM     11  C   UNL     1       7.238  18.761 -14.330  0.00  0.00    +0.006 A 
ATOM     12  C   UNL     1       8.775  18.741 -14.437  0.00  0.00    -0.042 A 
ATOM     17  C   UNL     1       9.642  18.583 -13.165  0.00  0.00    +0.006 A 
ATOM     18  C   UNL     1       8.968  18.448 -11.773  0.00  0.00    +0.024 A 
BRANCH  12  13
ATOM     13  C   UNL     1       9.451  18.876 -15.825  0.00  0.00    -0.013 C 
ATOM     14  C   UNL     1       9.990  20.321 -15.971  0.00  0.00    +0.015 C 
ATOM     15  C   UNL     1       8.422  18.606 -16.907  0.00  0.00    +0.015 C 
ATOM     16  C   UNL     1      10.604  17.855 -15.925  0.00  0.00    +0.015 C 
ENDBRANCH  12  13
ENDBRANCH   8   9
BRANCH   1   2
ATOM      2  C   UNL     1       6.738  15.638 -10.272  0.00  0.00    +0.190 A 
ATOM      3  C   UNL     1       6.012  14.925 -11.199  0.00  0.00    +0.054 A 
ATOM      4  C   UNL     1       6.680  13.766 -11.458  0.00  0.00    +0.042 A 
ATOM      5  C   UNL     1       7.826  13.757 -10.707  0.00  0.00    +0.196 A 
ATOM      6  O   UNL     1       7.860  14.919  -9.981  0.00  0.00    -0.458 OA
ENDBRANCH   1   2
BRANCH   8  19
ATOM     19  C   UNL     1       6.360  19.539  -9.595  0.00  0.00    +0.199 C 
BRANCH  19  20
ATOM     20  C   UNL     1       4.879  19.923  -9.712  0.00  0.00    +0.000 A 
ATOM     21  C   UNL     1       4.287  20.936  -8.730  0.00  0.00    +0.116 A 
ATOM     22  N   UNL     1       2.843  21.290  -8.835  0.00  0.00    -0.263 NA
ATOM     23  C   UNL     1       1.984  20.656  -9.882  0.00  0.00    +0.111 A 
ATOM     24  C   UNL     1       2.576  19.633 -10.854  0.00  0.00    +0.020 A 
ATOM     25  C   UNL     1       4.031  19.268 -10.756  0.00  0.00    +0.009 A 
ENDBRANCH  19  20
BRANCH  19  26
ATOM     26  C   UNL     1       7.084  20.786 -10.102  0.00  0.00    +0.239 C 
ATOM     27  O   UNL     1       8.106  21.078  -9.583  0.00  0.00    -0.273 OA
ATOM     28  N   UNL     1       6.565  21.589 -11.244  0.00  0.00    -0.309 N 
ATOM     29  H   UNL     1       5.837  21.353 -11.637  0.00  0.00    +0.149 HD
BRANCH  28  30
ATOM     30  C   UNL     1       7.310  22.811 -11.718  0.00  0.00    +0.026 C 
ATOM     31  C   UNL     1       6.505  23.517 -12.827  0.00  0.00    +0.031 C 
ATOM     32  C   UNL     1       8.681  22.405 -12.278  0.00  0.00    +0.031 C 
ATOM     33  C   UNL     1       7.500  23.803 -10.547  0.00  0.00    +0.031 C 
ENDBRANCH  28  30
ENDBRANCH  19  26
ENDBRANCH   8  19
TORSDOF 7
ENDMDL
MODEL 4
REMARK VINA RESULT:      -5.4      3.133      8.260
REMARK  Name = D:\DATA SETS\BI\DOCKING\7L0D\0EN.pdb
REMARK  13 active torsions:
REMARK  status: ('A' for Active; 'I' for Inactive)
REMARK    1  A    between atoms: _1  and  _10
REMARK    2  A    between atoms: _2  and  _4
REMARK    3  A    between atoms: _2  and  _14
REMARK    4  A    between atoms: _4  and  _7
REMARK    5  A    between atoms: _4  and  _24
REMARK    6  A    between atoms: _5  and  _29
REMARK    7  A    between atoms: _17  and  _20
REMARK    8  A    between atoms: _20  and  _21
REMARK    9  A    between atoms: _20  and  _22
REMARK   10  A    between atoms: _20  and  _23
REMARK   11  A    between atoms: _29  and  _30
REMARK   12  A    between atoms: _29  and  _31
REMARK   13  A    between atoms: _29  and  _32
REMARK                            x       y       z     vdW  Elec       q    Type
REMARK                         _______ _______ _______ _____ _____    ______ ____
ROOT
ATOM      1  C   UNL     1      11.641  10.792   2.459  0.00  0.00    +0.287 C 
ATOM      7  O   UNL     1      11.574  11.219   1.356  0.00  0.00    -0.266 OA
ATOM      8  N   UNL     1      11.076   9.439   2.700  0.00  0.00    -0.249 N 
ENDROOT
BRANCH   8   9
ATOM      9  C   UNL     1      11.118   8.713   4.028  0.00  0.00    +0.038 A 
ATOM     10  C   UNL     1      12.308   7.765   4.283  0.00  0.00    +0.024 A 
ATOM     11  C   UNL     1      12.404   6.983   5.619  0.00  0.00    +0.006 A 
ATOM     12  C   UNL     1      11.304   7.153   6.684  0.00  0.00    -0.042 A 
ATOM     17  C   UNL     1      10.105   8.096   6.423  0.00  0.00    +0.006 A 
ATOM     18  C   UNL     1      10.006   8.880   5.086  0.00  0.00    +0.024 A 
BRANCH  12  13
ATOM     13  C   UNL     1      11.400   6.371   8.019  0.00  0.00    -0.013 C 
ATOM     14  C   UNL     1      12.806   6.606   8.626  0.00  0.00    +0.015 C 
ATOM     15  C   UNL     1      11.207   4.892   7.743  0.00  0.00    +0.015 C 
ATOM     16  C   UNL     1      10.304   6.878   8.978  0.00  0.00    +0.015 C 
ENDBRANCH  12  13
ENDBRANCH   8   9
BRANCH   1   2
ATOM      2  C   UNL     1      12.334  11.680   3.544  0.00  0.00    +0.190 A 
ATOM      3  C   UNL     1      12.083  13.005   3.815  0.00  0.00    +0.054 A 
ATOM      4  C   UNL     1      12.878  13.381   4.856  0.00  0.00    +0.042 A 
ATOM      5  C   UNL     1      13.615  12.293   5.245  0.00  0.00    +0.196 A 
ATOM      6  O   UNL     1      13.270  11.243   4.435  0.00  0.00    -0.458 OA
ENDBRANCH   1   2
BRANCH   8  19
ATOM     19  C   UNL     1      10.536   8.758   1.530  0.00  0.00    +0.199 C 
BRANCH  19  20
ATOM     20  C   UNL     1       9.245   9.394   0.998  0.00  0.00    +0.000 A 
ATOM     21  C   UNL     1       8.336  10.161   1.960  0.00  0.00    +0.116 A 
ATOM     22  N   UNL     1       7.072  10.759   1.441  0.00  0.00    -0.263 NA
ATOM     23  C   UNL     1       6.697  10.603   0.002  0.00  0.00    +0.111 A 
ATOM     24  C   UNL     1       7.603   9.823  -0.954  0.00  0.00    +0.020 A 
ATOM     25  C   UNL     1       8.878   9.215  -0.441  0.00  0.00    +0.009 A 
ENDBRANCH  19  20
BRANCH  19  26
ATOM     26  C   UNL     1      10.119   7.318   1.825  0.00  0.00    +0.239 C 
ATOM     27  O   UNL     1      10.788   6.449   1.378  0.00  0.00    -0.273 OA
ATOM     28  N   UNL     1       8.947   6.997   2.686  0.00  0.00    -0.309 N 
ATOM     29  H   UNL     1       8.484   7.634   3.032  0.00  0.00    +0.149 HD
BRANCH  28  30
ATOM     30  C   UNL     1       8.569   5.563   2.956  0.00  0.00    +0.026 C 
ATOM     31  C   UNL     1       7.475   5.506   4.040  0.00  0.00    +0.031 C 
ATOM     32  C   UNL     1       9.797   4.780   3.446  0.00  0.00    +0.031 C 
ATOM     33  C   UNL     1       8.015   4.908   1.670  0.00  0.00    +0.031 C 
ENDBRANCH  28  30
ENDBRANCH  19  26
ENDBRANCH   8  19
TORSDOF 7
ENDMDL
MODEL 5
REMARK VINA RESULT:      -5.4     27.211     30.693
REMARK  Name = D:\DATA SETS\BI\DOCKING\7L0D\0EN.pdb
REMARK  13 active torsions:
REMARK  status: ('A' for Active; 'I' for Inactive)
REMARK    1  A    between atoms: _1  and  _10
REMARK    2  A    between atoms: _2  and  _4
REMARK    3  A    between atoms: _2  and  _14
REMARK    4  A    between atoms: _4  and  _7
REMARK    5  A    between atoms: _4  and  _24
REMARK    6  A    between atoms: _5  and  _29
REMARK    7  A    between atoms: _17  and  _20
REMARK    8  A    between atoms: _20  and  _21
REMARK    9  A    between atoms: _20  and  _22
REMARK   10  A    between atoms: _20  and  _23
REMARK   11  A    between atoms: _29  and  _30
REMARK   12  A    between atoms: _29  and  _31
REMARK   13  A    between atoms: _29  and  _32
REMARK                            x       y       z     vdW  Elec       q    Type
REMARK                         _______ _______ _______ _____ _____    ______ ____
ROOT
ATOM      1  C   UNL     1      25.065 -16.022  23.742  0.00  0.00    +0.287 C 
ATOM      7  O   UNL     1      25.206 -16.377  24.863  0.00  0.00    -0.266 OA
ATOM      8  N   UNL     1      24.854 -14.570  23.510  0.00  0.00    -0.249 N 
ENDROOT
BRANCH   8   9
ATOM      9  C   UNL     1      24.707 -13.928  22.147  0.00  0.00    +0.038 A 
ATOM     10  C   UNL     1      26.001 -13.553  21.395  0.00  0.00    +0.024 A 
ATOM     11  C   UNL     1      25.920 -12.884  19.999  0.00  0.00    +0.006 A 
ATOM     12  C   UNL     1      24.545 -12.589  19.372  0.00  0.00    -0.042 A 
ATOM     17  C   UNL     1      23.247 -12.955  20.131  0.00  0.00    +0.006 A 
ATOM     18  C   UNL     1      23.325 -13.627  21.529  0.00  0.00    +0.024 A 
BRANCH  12  13
ATOM     13  C   UNL     1      24.464 -11.919  17.976  0.00  0.00    -0.013 C 
ATOM     14  C   UNL     1      25.847 -12.043  17.290  0.00  0.00    +0.015 C 
ATOM     15  C   UNL     1      24.113 -10.453  18.149  0.00  0.00    +0.015 C 
ATOM     16  C   UNL     1      23.378 -12.627  17.140  0.00  0.00    +0.015 C 
ENDBRANCH  12  13
ENDBRANCH   8   9
BRANCH   1   2
ATOM      2  C   UNL     1      25.138 -17.107  22.618  0.00  0.00    +0.190 A 
ATOM      3  C   UNL     1      25.961 -18.210  22.581  0.00  0.00    +0.054 A 
ATOM      4  C   UNL     1      25.678 -18.910  21.447  0.00  0.00    +0.042 A 
ATOM      5  C   UNL     1      24.674 -18.257  20.781  0.00  0.00    +0.196 A 
ATOM      6  O   UNL     1      24.340 -17.147  21.513  0.00  0.00    -0.458 OA
ENDBRANCH   1   2
BRANCH   8  19
ATOM     19  C   UNL     1      24.889 -13.725  24.697  0.00  0.00    +0.199 C 
BRANCH  19  20
ATOM     20  C   UNL     1      23.500 -13.446  25.286  0.00  0.00    +0.000 A 
ATOM     21  C   UNL     1      23.385 -12.868  26.698  0.00  0.00    +0.116 A 
ATOM     22  N   UNL     1      22.033 -12.619  27.272  0.00  0.00    -0.263 NA
ATOM     23  C   UNL     1      20.805 -12.937  26.479  0.00  0.00    +0.111 A 
ATOM     24  C   UNL     1      20.923 -13.527  25.073  0.00  0.00    +0.020 A 
ATOM     25  C   UNL     1      22.282 -13.784  24.485  0.00  0.00    +0.009 A 
ENDBRANCH  19  20
BRANCH  19  26
ATOM     26  C   UNL     1      25.433 -12.326  24.411  0.00  0.00    +0.239 C 
ATOM     27  O   UNL     1      26.607 -12.196  24.341  0.00  0.00    -0.273 OA
ATOM     28  N   UNL     1      24.533 -11.164  24.174  0.00  0.00    -0.309 N 
ATOM     29  H   UNL     1      23.680 -11.272  24.196  0.00  0.00    +0.149 HD
BRANCH  28  30
ATOM     30  C   UNL     1      25.108  -9.799  23.891  0.00  0.00    +0.026 C 
ATOM     31  C   UNL     1      24.003  -8.731  24.012  0.00  0.00    +0.031 C 
ATOM     32  C   UNL     1      25.687  -9.759  22.468  0.00  0.00    +0.031 C 
ATOM     33  C   UNL     1      26.219  -9.469  24.913  0.00  0.00    +0.031 C 
ENDBRANCH  28  30
ENDBRANCH  19  26
ENDBRANCH   8  19
TORSDOF 7
ENDMDL
MODEL 6
REMARK VINA RESULT:      -5.3     17.984     21.430
REMARK  Name = D:\DATA SETS\BI\DOCKING\7L0D\0EN.pdb
REMARK  13 active torsions:
REMARK  status: ('A' for Active; 'I' for Inactive)
REMARK    1  A    between atoms: _1  and  _10
REMARK    2  A    between atoms: _2  and  _4
REMARK    3  A    between atoms: _2  and  _14
REMARK    4  A    between atoms: _4  and  _7
REMARK    5  A    between atoms: _4  and  _24
REMARK    6  A    between atoms: _5  and  _29
REMARK    7  A    between atoms: _17  and  _20
REMARK    8  A    between atoms: _20  and  _21
REMARK    9  A    between atoms: _20  and  _22
REMARK   10  A    between atoms: _20  and  _23
REMARK   11  A    between atoms: _29  and  _30
REMARK   12  A    between atoms: _29  and  _31
REMARK   13  A    between atoms: _29  and  _32
REMARK                            x       y       z     vdW  Elec       q    Type
REMARK                         _______ _______ _______ _____ _____    ______ ____
ROOT
ATOM      1  C   UNL     1       5.029  19.186 -10.267  0.00  0.00    +0.287 C 
ATOM      7  O   UNL     1       4.044  18.539 -10.386  0.00  0.00    -0.266 OA
ATOM      8  N   UNL     1       6.131  18.929 -11.230  0.00  0.00    -0.249 N 
ENDROOT
BRANCH   8   9
ATOM      9  C   UNL     1       7.440  19.690 -11.263  0.00  0.00    +0.038 A 
ATOM     10  C   UNL     1       7.451  21.053 -11.986  0.00  0.00    +0.024 A 
ATOM     11  C   UNL     1       8.761  21.878 -12.065  0.00  0.00    +0.006 A 
ATOM     12  C   UNL     1      10.050  21.327 -11.426  0.00  0.00    -0.042 A 
ATOM     17  C   UNL     1      10.041  19.955 -10.711  0.00  0.00    +0.006 A 
ATOM     18  C   UNL     1       8.730  19.127 -10.629  0.00  0.00    +0.024 A 
BRANCH  12  13
ATOM     13  C   UNL     1      11.360  22.152 -11.506  0.00  0.00    -0.013 C 
ATOM     14  C   UNL     1      12.403  21.511 -10.556  0.00  0.00    +0.015 C 
ATOM     15  C   UNL     1      11.078  23.576 -11.065  0.00  0.00    +0.015 C 
ATOM     16  C   UNL     1      11.874  22.141 -12.961  0.00  0.00    +0.015 C 
ENDBRANCH  12  13
ENDBRANCH   8   9
BRANCH   1   2
ATOM      2  C   UNL     1       5.065  20.257  -9.129  0.00  0.00    +0.190 A 
ATOM      3  C   UNL     1       4.834  21.608  -9.254  0.00  0.00    +0.054 A 
ATOM      4  C   UNL     1       4.930  22.169  -8.016  0.00  0.00    +0.042 A 
ATOM      5  C   UNL     1       5.208  21.173  -7.116  0.00  0.00    +0.196 A 
ATOM      6  O   UNL     1       5.284  19.993  -7.809  0.00  0.00    -0.458 OA
ENDBRANCH   1   2
BRANCH   8  19
ATOM     19  C   UNL     1       5.859  17.930 -12.255  0.00  0.00    +0.199 C 
BRANCH  19  20
ATOM     20  C   UNL     1       6.299  16.514 -11.857  0.00  0.00    +0.000 A 
ATOM     21  C   UNL     1       5.929  15.333 -12.756  0.00  0.00    +0.116 A 
ATOM     22  N   UNL     1       6.341  13.958 -12.354  0.00  0.00    -0.263 NA
ATOM     23  C   UNL     1       7.099  13.739 -11.083  0.00  0.00    +0.111 A 
ATOM     24  C   UNL     1       7.456  14.921 -10.180  0.00  0.00    +0.020 A 
ATOM     25  C   UNL     1       7.044  16.311 -10.576  0.00  0.00    +0.009 A 
ENDBRANCH  19  20
BRANCH  19  26
ATOM     26  C   UNL     1       6.634  18.184 -13.548  0.00  0.00    +0.239 C 
ATOM     27  O   UNL     1       6.065  18.728 -14.432  0.00  0.00    -0.273 OA
ATOM     28  N   UNL     1       8.070  17.816 -13.692  0.00  0.00    -0.309 N 
ATOM     29  H   UNL     1       8.485  17.449 -13.034  0.00  0.00    +0.149 HD
BRANCH  28  30
ATOM     30  C   UNL     1       8.801  18.087 -14.982  0.00  0.00    +0.026 C 
ATOM     31  C   UNL     1       8.585  19.552 -15.409  0.00  0.00    +0.031 C 
ATOM     32  C   UNL     1       8.272  17.162 -16.089  0.00  0.00    +0.031 C 
ATOM     33  C   UNL     1      10.317  17.853 -14.791  0.00  0.00    +0.031 C 
ENDBRANCH  28  30
ENDBRANCH  19  26
ENDBRANCH   8  19
TORSDOF 7
ENDMDL
MODEL 7
REMARK VINA RESULT:      -5.2      2.439      4.624
REMARK  Name = D:\DATA SETS\BI\DOCKING\7L0D\0EN.pdb
REMARK  13 active torsions:
REMARK  status: ('A' for Active; 'I' for Inactive)
REMARK    1  A    between atoms: _1  and  _10
REMARK    2  A    between atoms: _2  and  _4
REMARK    3  A    between atoms: _2  and  _14
REMARK    4  A    between atoms: _4  and  _7
REMARK    5  A    between atoms: _4  and  _24
REMARK    6  A    between atoms: _5  and  _29
REMARK    7  A    between atoms: _17  and  _20
REMARK    8  A    between atoms: _20  and  _21
REMARK    9  A    between atoms: _20  and  _22
REMARK   10  A    between atoms: _20  and  _23
REMARK   11  A    between atoms: _29  and  _30
REMARK   12  A    between atoms: _29  and  _31
REMARK   13  A    between atoms: _29  and  _32
REMARK                            x       y       z     vdW  Elec       q    Type
REMARK                         _______ _______ _______ _____ _____    ______ ____
ROOT
ATOM      1  C   UNL     1      10.681   3.574   4.036  0.00  0.00    +0.287 C 
ATOM      7  O   UNL     1      11.779   3.361   3.647  0.00  0.00    -0.266 OA
ATOM      8  N   UNL     1      10.381   4.951   4.508  0.00  0.00    -0.249 N 
ENDROOT
BRANCH   8   9
ATOM      9  C   UNL     1       9.025   5.419   4.990  0.00  0.00    +0.038 A 
ATOM     10  C   UNL     1       8.064   6.017   3.941  0.00  0.00    +0.024 A 
ATOM     11  C   UNL     1       6.664   6.525   4.371  0.00  0.00    +0.006 A 
ATOM     12  C   UNL     1       6.241   6.437   5.850  0.00  0.00    -0.042 A 
ATOM     17  C   UNL     1       7.209   5.848   6.904  0.00  0.00    +0.006 A 
ATOM     18  C   UNL     1       8.612   5.337   6.476  0.00  0.00    +0.024 A 
BRANCH  12  13
ATOM     13  C   UNL     1       4.842   6.946   6.280  0.00  0.00    -0.013 C 
ATOM     14  C   UNL     1       3.845   5.762   6.209  0.00  0.00    +0.015 C 
ATOM     15  C   UNL     1       4.398   8.041   5.329  0.00  0.00    +0.015 C 
ATOM     16  C   UNL     1       4.927   7.497   7.719  0.00  0.00    +0.015 C 
ENDBRANCH  12  13
ENDBRANCH   8   9
BRANCH   1   2
ATOM      2  C   UNL     1       9.651   2.398   3.995  0.00  0.00    +0.190 A 
ATOM      3  C   UNL     1       8.445   2.374   3.333  0.00  0.00    +0.054 A 
ATOM      4  C   UNL     1       7.880   1.149   3.528  0.00  0.00    +0.042 A 
ATOM      5  C   UNL     1       8.733   0.404   4.299  0.00  0.00    +0.196 A 
ATOM      6  O   UNL     1       9.829   1.178   4.579  0.00  0.00    -0.458 OA
ENDBRANCH   1   2
BRANCH   8  19
ATOM     19  C   UNL     1      11.471   5.912   4.396  0.00  0.00    +0.199 C 
BRANCH  19  20
ATOM     20  C   UNL     1      12.086   6.294   5.749  0.00  0.00    +0.000 A 
ATOM     21  C   UNL     1      13.288   7.239   5.787  0.00  0.00    +0.116 A 
ATOM     22  N   UNL     1      13.893   7.591   7.103  0.00  0.00    -0.263 NA
ATOM     23  C   UNL     1      13.336   7.019   8.368  0.00  0.00    +0.111 A 
ATOM     24  C   UNL     1      12.142   6.064   8.325  0.00  0.00    +0.020 A 
ATOM     25  C   UNL     1      11.525   5.702   7.004  0.00  0.00    +0.009 A 
ENDBRANCH  19  20
BRANCH  19  26
ATOM     26  C   UNL     1      11.018   7.256   3.828  0.00  0.00    +0.239 C 
ATOM     27  O   UNL     1      10.750   8.116   4.596  0.00  0.00    -0.273 OA
ATOM     28  N   UNL     1      10.958   7.513   2.363  0.00  0.00    -0.309 N 
ATOM     29  H   UNL     1      11.183   6.893   1.810  0.00  0.00    +0.149 HD
BRANCH  28  30
ATOM     30  C   UNL     1      10.509   8.854   1.840  0.00  0.00    +0.026 C 
ATOM     31  C   UNL     1      10.188   8.749   0.336  0.00  0.00    +0.031 C 
ATOM     32  C   UNL     1      11.621   9.894   2.041  0.00  0.00    +0.031 C 
ATOM     33  C   UNL     1       9.231   9.310   2.580  0.00  0.00    +0.031 C 
ENDBRANCH  28  30
ENDBRANCH  19  26
ENDBRANCH   8  19
TORSDOF 7
ENDMDL
MODEL 8
REMARK VINA RESULT:      -5.1      2.743      6.212
REMARK  Name = D:\DATA SETS\BI\DOCKING\7L0D\0EN.pdb
REMARK  13 active torsions:
REMARK  status: ('A' for Active; 'I' for Inactive)
REMARK    1  A    between atoms: _1  and  _10
REMARK    2  A    between atoms: _2  and  _4
REMARK    3  A    between atoms: _2  and  _14
REMARK    4  A    between atoms: _4  and  _7
REMARK    5  A    between atoms: _4  and  _24
REMARK    6  A    between atoms: _5  and  _29
REMARK    7  A    between atoms: _17  and  _20
REMARK    8  A    between atoms: _20  and  _21
REMARK    9  A    between atoms: _20  and  _22
REMARK   10  A    between atoms: _20  and  _23
REMARK   11  A    between atoms: _29  and  _30
REMARK   12  A    between atoms: _29  and  _31
REMARK   13  A    between atoms: _29  and  _32
REMARK                            x       y       z     vdW  Elec       q    Type
REMARK                         _______ _______ _______ _____ _____    ______ ____
ROOT
ATOM      1  C   UNL     1      12.760   8.623   6.315  0.00  0.00    +0.287 C 
ATOM      7  O   UNL     1      13.314   8.204   7.274  0.00  0.00    -0.266 OA
ATOM      8  N   UNL     1      11.906   7.674   5.555  0.00  0.00    -0.249 N 
ENDROOT
BRANCH   8   9
ATOM      9  C   UNL     1      11.084   8.042   4.337  0.00  0.00    +0.038 A 
ATOM     10  C   UNL     1      11.734   7.836   2.953  0.00  0.00    +0.024 A 
ATOM     11  C   UNL     1      10.950   8.202   1.667  0.00  0.00    +0.006 A 
ATOM     12  C   UNL     1       9.525   8.778   1.778  0.00  0.00    -0.042 A 
ATOM     17  C   UNL     1       8.878   8.994   3.167  0.00  0.00    +0.006 A 
ATOM     18  C   UNL     1       9.661   8.628   4.458  0.00  0.00    +0.024 A 
BRANCH  12  13
ATOM     13  C   UNL     1       8.741   9.145   0.492  0.00  0.00    -0.013 C 
ATOM     14  C   UNL     1       8.144   7.847  -0.106  0.00  0.00    +0.015 C 
ATOM     15  C   UNL     1       9.694   9.773  -0.508  0.00  0.00    +0.015 C 
ATOM     16  C   UNL     1       7.621  10.141   0.853  0.00  0.00    +0.015 C 
ENDBRANCH  12  13
ENDBRANCH   8   9
BRANCH   1   2
ATOM      2  C   UNL     1      12.962  10.132   5.955  0.00  0.00    +0.190 A 
ATOM      3  C   UNL     1      12.047  11.149   6.101  0.00  0.00    +0.054 A 
ATOM      4  C   UNL     1      12.639  12.310   5.703  0.00  0.00    +0.042 A 
ATOM      5  C   UNL     1      13.923  12.025   5.321  0.00  0.00    +0.196 A 
ATOM      6  O   UNL     1      14.120  10.679   5.485  0.00  0.00    -0.458 OA
ENDBRANCH   1   2
BRANCH   8  19
ATOM     19  C   UNL     1      11.805   6.329   6.105  0.00  0.00    +0.199 C 
BRANCH  19  20
ATOM     20  C   UNL     1      11.239   5.306   5.111  0.00  0.00    +0.000 A 
ATOM     21  C   UNL     1      12.177   4.281   4.472  0.00  0.00    +0.116 A 
ATOM     22  N   UNL     1      11.624   3.304   3.492  0.00  0.00    -0.263 NA
ATOM     23  C   UNL     1      10.172   3.332   3.134  0.00  0.00    +0.111 A 
ATOM     24  C   UNL     1       9.239   4.366   3.766  0.00  0.00    +0.020 A 
ATOM     25  C   UNL     1       9.786   5.357   4.754  0.00  0.00    +0.009 A 
ENDBRANCH  19  20
BRANCH  19  26
ATOM     26  C   UNL     1      10.836   6.243   7.283  0.00  0.00    +0.239 C 
ATOM     27  O   UNL     1      10.067   7.131   7.429  0.00  0.00    -0.273 OA
ATOM     28  N   UNL     1      10.808   5.068   8.198  0.00  0.00    -0.309 N 
ATOM     29  H   UNL     1      11.350   4.412   8.068  0.00  0.00    +0.149 HD
BRANCH  28  30
ATOM     30  C   UNL     1       9.835   5.018   9.347  0.00  0.00    +0.026 C 
ATOM     31  C   UNL     1      10.042   3.721  10.153  0.00  0.00    +0.031 C 
ATOM     32  C   UNL     1       8.394   5.051   8.816  0.00  0.00    +0.031 C 
ATOM     33  C   UNL     1      10.067   6.220  10.292  0.00  0.00    +0.031 C 
ENDBRANCH  28  30
ENDBRANCH  19  26
ENDBRANCH   8  19
TORSDOF 7
ENDMDL
MODEL 9
REMARK VINA RESULT:      -5.0     23.368     26.801
REMARK  Name = D:\DATA SETS\BI\DOCKING\7L0D\0EN.pdb
REMARK  13 active torsions:
REMARK  status: ('A' for Active; 'I' for Inactive)
REMARK    1  A    between atoms: _1  and  _10
REMARK    2  A    between atoms: _2  and  _4
REMARK    3  A    between atoms: _2  and  _14
REMARK    4  A    between atoms: _4  and  _7
REMARK    5  A    between atoms: _4  and  _24
REMARK    6  A    between atoms: _5  and  _29
REMARK    7  A    between atoms: _17  and  _20
REMARK    8  A    between atoms: _20  and  _21
REMARK    9  A    between atoms: _20  and  _22
REMARK   10  A    between atoms: _20  and  _23
REMARK   11  A    between atoms: _29  and  _30
REMARK   12  A    between atoms: _29  and  _31
REMARK   13  A    between atoms: _29  and  _32
REMARK                            x       y       z     vdW  Elec       q    Type
REMARK                         _______ _______ _______ _____ _____    ______ ____
ROOT
ATOM      1  C   UNL     1      24.084 -13.217  16.263  0.00  0.00    +0.287 C 
ATOM      7  O   UNL     1      23.600 -14.042  15.566  0.00  0.00    -0.266 OA
ATOM      8  N   UNL     1      24.916 -12.175  15.607  0.00  0.00    -0.249 N 
ENDROOT
BRANCH   8   9
ATOM      9  C   UNL     1      25.570 -11.015  16.329  0.00  0.00    +0.038 A 
ATOM     10  C   UNL     1      26.992 -11.235  16.885  0.00  0.00    +0.024 A 
ATOM     11  C   UNL     1      27.714 -10.091  17.643  0.00  0.00    +0.006 A 
ATOM     12  C   UNL     1      27.001  -8.740  17.843  0.00  0.00    -0.042 A 
ATOM     17  C   UNL     1      25.570  -8.524  17.295  0.00  0.00    +0.006 A 
ATOM     18  C   UNL     1      24.846  -9.668  16.535  0.00  0.00    +0.024 A 
BRANCH  12  13
ATOM     13  C   UNL     1      27.722  -7.596  18.602  0.00  0.00    -0.013 C 
ATOM     14  C   UNL     1      29.239  -7.912  18.641  0.00  0.00    +0.015 C 
ATOM     15  C   UNL     1      27.182  -7.522  20.018  0.00  0.00    +0.015 C 
ATOM     16  C   UNL     1      27.465  -6.265  17.867  0.00  0.00    +0.015 C 
ENDBRANCH  12  13
ENDBRANCH   8   9
BRANCH   1   2
ATOM      2  C   UNL     1      23.782 -13.288  17.796  0.00  0.00    +0.190 A 
ATOM      3  C   UNL     1      22.683 -12.780  18.450  0.00  0.00    +0.054 A 
ATOM      4  C   UNL     1      22.797 -13.091  19.771  0.00  0.00    +0.042 A 
ATOM      5  C   UNL     1      23.955 -13.802  19.944  0.00  0.00    +0.196 A 
ATOM      6  O   UNL     1      24.557 -13.926  18.720  0.00  0.00    -0.458 OA
ENDBRANCH   1   2
BRANCH   8  19
ATOM     19  C   UNL     1      25.011 -12.258  14.156  0.00  0.00    +0.199 C 
BRANCH  19  20
ATOM     20  C   UNL     1      25.991 -13.335  13.670  0.00  0.00    +0.000 A 
ATOM     21  C   UNL     1      26.030 -13.699  12.185  0.00  0.00    +0.116 A 
ATOM     22  N   UNL     1      26.970 -14.760  11.724  0.00  0.00    -0.263 NA
ATOM     23  C   UNL     1      27.856 -15.463  12.702  0.00  0.00    +0.111 A 
ATOM     24  C   UNL     1      27.805 -15.105  14.189  0.00  0.00    +0.020 A 
ATOM     25  C   UNL     1      26.860 -14.038  14.665  0.00  0.00    +0.009 A 
ENDBRANCH  19  20
BRANCH  19  26
ATOM     26  C   UNL     1      25.559 -10.979  13.525  0.00  0.00    +0.239 C 
ATOM     27  O   UNL     1      26.723 -10.780  13.609  0.00  0.00    -0.273 OA
ATOM     28  N   UNL     1      24.686 -10.030  12.781  0.00  0.00    -0.309 N 
ATOM     29  H   UNL     1      23.846 -10.196  12.698  0.00  0.00    +0.149 HD
BRANCH  28  30
ATOM     30  C   UNL     1      25.265  -8.779  12.169  0.00  0.00    +0.026 C 
ATOM     31  C   UNL     1      26.618  -9.101  11.503  0.00  0.00    +0.031 C 
ATOM     32  C   UNL     1      25.486  -7.717  13.257  0.00  0.00    +0.031 C 
ATOM     33  C   UNL     1      24.309  -8.225  11.088  0.00  0.00    +0.031 C 
ENDBRANCH  28  30
ENDBRANCH  19  26
ENDBRANCH   8  19
TORSDOF 7
ENDMDL
